REMARK  Name = ZINC15_fda_0007.pdb
REMARK  1 active torsions:
REMARK  status: ('A' for Active; 'I' for Inactive)
REMARK    1  A    between atoms: _1  and  _2
REMARK                            x       y       z     vdW  Elec       q    Type
REMARK                         _______ _______ _______ _____ _____    ______ ____
ROOT
ATOM      1  C   UNL     1       0.002  -0.004   0.002  0.00  0.00    +0.143 A 
ATOM      2  C   UNL     1       0.006  -0.707  -1.221  0.00  0.00    +0.112 A 
ATOM      3  N   UNL     1      -0.008  -0.058  -2.389  0.00  0.00    -0.251 NA
ATOM      4  C   UNL     1      -0.004  -0.706  -3.529  0.00  0.00    +0.111 A 
ATOM      5  C   UNL     1       0.015  -2.098  -3.580  0.00  0.00    +0.020 A 
ATOM      6  C   UNL     1       0.029  -2.822  -2.422  0.00  0.00    +0.011 A 
ATOM      7  C   UNL     1       0.025  -2.123  -1.201  0.00  0.00    +0.004 A 
ATOM      8  C   UNL     1       0.040  -2.800   0.029  0.00  0.00    +0.010 A 
ATOM      9  C   UNL     1       0.036  -2.089   1.191  0.00  0.00    +0.004 A 
ATOM     10  C   UNL     1       0.023  -0.697   1.179  0.00  0.00    +0.047 A 
ENDROOT
BRANCH   1  11
ATOM     11  O   UNL     1      -0.016   1.354   0.009  0.00  0.00    -0.505 OA
ATOM     12  H   UNL     1       0.862   1.760   0.003  0.00  0.00    +0.292 HD
ENDBRANCH   1  11
TORSDOF 1
