REMARK  Name = ZINC15_fda_0006.pdb
REMARK  3 active torsions:
REMARK  status: ('A' for Active; 'I' for Inactive)
REMARK    1  A    between atoms: _4  and  _5
REMARK    2  A    between atoms: _8  and  _9
REMARK    3  A    between atoms: _15  and  _16
REMARK                            x       y       z     vdW  Elec       q    Type
REMARK                         _______ _______ _______ _____ _____    ______ ____
ROOT
ATOM      1  N   UNL     1      -0.077   1.362  -0.010  0.00  0.00    -0.327 N 
ATOM      2  H   UNL     1      -0.917   1.827   0.129  0.00  0.00    +0.145 HD
ATOM      3  H   UNL     1       0.731   1.864  -0.197  0.00  0.00    +0.145 HD
ATOM      4  C   UNL     1      -0.034  -0.018   0.051  0.00  0.00    +0.216 A 
ATOM      5  N   UNL     1      -1.159  -0.680   0.304  0.00  0.00    -0.198 NA
ATOM      6  C   UNL     1      -1.179  -2.003   0.375  0.00  0.00    +0.149 A 
ATOM      7  C   UNL     1       0.035  -2.709   0.174  0.00  0.00    +0.147 A 
ATOM      8  N   UNL     1       0.088  -4.038   0.231  0.00  0.00    -0.240 NA
ATOM      9  C   UNL     1       1.239  -4.656   0.038  0.00  0.00    +0.095 C 
ATOM     10  C   UNL     1       2.413  -3.912  -0.228  0.00  0.00    +0.199 C 
ATOM     11  N   UNL     1       2.370  -2.593  -0.286  0.00  0.00    -0.231 NA
ATOM     12  C   UNL     1       1.208  -1.960  -0.092  0.00  0.00    +0.183 A 
ATOM     13  N   UNL     1       1.122  -0.625  -0.148  0.00  0.00    -0.194 NA
ENDROOT
BRANCH   9  14
ATOM     14  C   UNL     1       1.302  -6.135   0.100  0.00  0.00    +0.000 A 
ATOM     15  C   UNL     1       2.341  -6.763   0.787  0.00  0.00    +0.010 A 
ATOM     16  C   UNL     1       2.393  -8.141   0.842  0.00  0.00    +0.001 A 
ATOM     17  C   UNL     1       1.419  -8.899   0.217  0.00  0.00    +0.000 A 
ATOM     18  C   UNL     1       0.386  -8.281  -0.465  0.00  0.00    +0.001 A 
ATOM     19  C   UNL     1       0.320  -6.904  -0.522  0.00  0.00    +0.010 A 
ENDBRANCH   9  14
BRANCH  10  20
ATOM     20  N   UNL     1       3.612  -4.569  -0.430  0.00  0.00    -0.299 NA
ATOM     21  H   UNL     1       4.439  -4.064  -0.488  0.00  0.00    +0.121 HD
ATOM     22  H   UNL     1       3.628  -5.536  -0.513  0.00  0.00    +0.121 HD
ENDBRANCH  10  20
BRANCH   6  23
ATOM     23  N   UNL     1      -2.353  -2.678   0.637  0.00  0.00    -0.341 N 
ATOM     24  H   UNL     1      -2.354  -3.647   0.686  0.00  0.00    +0.144 HD
ATOM     25  H   UNL     1      -3.176  -2.184   0.772  0.00  0.00    +0.144 HD
ENDBRANCH   6  23
TORSDOF 3
