REMARK  Name = ZINC15_fda_0008.pdb
REMARK  6 active torsions:
REMARK  status: ('A' for Active; 'I' for Inactive)
REMARK    1  A    between atoms: _1  and  _2
REMARK    2  A    between atoms: _2  and  _3
REMARK    3  A    between atoms: _4  and  _5
REMARK    4  A    between atoms: _11  and  _13
REMARK    5  A    between atoms: _20  and  _21
REMARK    6  A    between atoms: _25  and  _26
REMARK                            x       y       z     vdW  Elec       q    Type
REMARK                         _______ _______ _______ _____ _____    ______ ____
ROOT
ATOM      1  C   UNL     1       0.691  -0.165   1.275  0.00  0.00    +0.168 A 
ATOM      2  C   UNL     1       2.077  -0.229   1.317  0.00  0.00    +0.110 A 
ATOM      3  C   UNL     1       2.725  -0.854   2.384  0.00  0.00    +0.149 A 
ATOM      4  C   UNL     1       2.002  -1.412   3.400  0.00  0.00    +0.054 A 
ATOM      5  C   UNL     1       0.606  -1.357   3.373  0.00  0.00    +0.052 A 
ATOM      6  C   UNL     1      -0.199  -1.950   4.455  0.00  0.00    +0.204 A 
ATOM      7  O   UNL     1       0.325  -2.510   5.402  0.00  0.00    -0.286 OA
ATOM      8  C   UNL     1      -1.663  -1.849   4.337  0.00  0.00    +0.126 A 
ATOM      9  C   UNL     1      -2.203  -1.203   3.241  0.00  0.00    +0.105 A 
ATOM     10  N   UNL     1      -1.439  -0.670   2.281  0.00  0.00    -0.340 N 
ATOM     11  F   UNL     1       4.075  -0.908   2.411  0.00  0.00    -0.203 F 
ATOM     12  C   UNL     1      -0.059  -0.724   2.308  0.00  0.00    +0.097 A 
ENDROOT
BRANCH   2  13
ATOM     13  N   UNL     1       2.828   0.337   0.285  0.00  0.00    -0.314 N 
ATOM     14  C   UNL     1       3.199  -0.451  -0.900  0.00  0.00    +0.156 C 
ATOM     15  C   UNL     1       2.818   0.347  -2.152  0.00  0.00    +0.149 C 
ATOM     16  N   UNL     1       3.438   1.677  -2.090  0.00  0.00    +0.231 N 
ATOM     17  C   UNL     1       2.888   2.433  -0.958  0.00  0.00    +0.077 C 
ATOM     18  C   UNL     1       3.457   3.853  -0.968  0.00  0.00    +0.065 C 
ATOM     19  H   UNL     1       3.249   2.175  -2.947  0.00  0.00    +0.202 HD
ATOM     20  H   UNL     1       4.435   1.577  -1.974  0.00  0.00    +0.202 HD
ATOM     21  C   UNL     1       3.267   1.740   0.350  0.00  0.00    +0.159 C 
ENDBRANCH   2  13
BRANCH   8  22
ATOM     22  C   UNL     1      -2.535  -2.420   5.369  0.00  0.00    +0.392 C 
ATOM     23  O   UNL     1      -2.046  -2.991   6.335  0.00  0.00    -0.240 OA
ATOM     24  O   UNL     1      -3.751  -2.327   5.264  0.00  0.00    -0.240 OA
ENDBRANCH   8  22
BRANCH  10  25
ATOM     25  C   UNL     1      -2.093  -0.003   1.153  0.00  0.00    +0.088 C 
ATOM     26  C   UNL     1      -3.623   0.014   1.133  0.00  0.00    +0.027 C 
ATOM     27  C   UNL     1      -2.847   1.296   1.442  0.00  0.00    +0.027 C 
ENDBRANCH  10  25
BRANCH   1  29
ATOM     28  C   UNL     1      -0.194   1.847   0.362  0.00  0.00    +0.277 C 
ATOM     29  O   UNL     1       0.066   0.447   0.232  0.00  0.00    -0.491 OA
ENDBRANCH   1  29
TORSDOF 4
