REMARK  Name = ZINC15_fda_0010.pdb
REMARK  8 active torsions:
REMARK  status: ('A' for Active; 'I' for Inactive)
REMARK    1  A    between atoms: _1  and  _2
REMARK    2  A    between atoms: _2  and  _3
REMARK    3  A    between atoms: _6  and  _7
REMARK    4  A    between atoms: _7  and  _8
REMARK    5  A    between atoms: _13  and  _14
REMARK    6  A    between atoms: _39  and  _40
REMARK    7  A    between atoms: _39  and  _41
REMARK    8  A    between atoms: _41  and  _42
REMARK                            x       y       z     vdW  Elec       q    Type
REMARK                         _______ _______ _______ _____ _____    ______ ____
ROOT
ATOM      1  C   UNL     1      -1.412  -0.738   0.015  0.00  0.00    -0.031 A 
ATOM      2  C   UNL     1      -2.100  -0.880   1.237  0.00  0.00    +0.007 A 
ATOM      3  C   UNL     1      -1.459  -0.656   2.464  0.00  0.00    +0.056 A 
ATOM      4  C   UNL     1      -2.159  -0.804   3.628  0.00  0.00    +0.134 A 
ATOM      5  C   UNL     1      -3.507  -1.176   3.611  0.00  0.00    +0.048 A 
ATOM      6  C   UNL     1      -4.156  -1.401   2.438  0.00  0.00    +0.032 A 
ATOM      7  C   UNL     1      -3.468  -1.258   1.217  0.00  0.00    +0.072 A 
ATOM      8  N   UNL     1      -4.086  -1.472   0.056  0.00  0.00    -0.245 NA
ATOM      9  C   UNL     1      -3.451  -1.341  -1.099  0.00  0.00    +0.093 A 
ATOM     10  C   UNL     1      -3.921  -1.521  -2.492  0.00  0.00    +0.071 A 
ATOM     11  C   UNL     1      -5.160  -1.883  -2.976  0.00  0.00    +0.035 A 
ATOM     12  C   UNL     1      -5.370  -2.005  -4.356  0.00  0.00    +0.008 A 
ATOM     13  C   UNL     1      -4.341  -1.766  -5.213  0.00  0.00    +0.061 A 
ATOM     14  C   UNL     1      -3.089  -1.380  -4.691  0.00  0.00    +0.259 A 
ATOM     15  O   UNL     1      -2.166  -1.145  -5.454  0.00  0.00    -0.267 OA
ATOM     16  C   UNL     1      -4.486  -1.900  -6.705  0.00  0.00    +0.273 C 
ATOM     17  O   UNL     1      -5.887  -1.928  -7.084  0.00  0.00    -0.457 OA
ATOM     18  C   UNL     1      -6.665  -2.726  -6.318  0.00  0.00    +0.344 C 
ATOM     19  O   UNL     1      -7.267  -3.663  -6.787  0.00  0.00    -0.247 OA
ATOM     20  C   UNL     1      -6.743  -2.389  -4.847  0.00  0.00    +0.188 C 
ATOM     21  N   UNL     1      -2.897  -1.275  -3.362  0.00  0.00    -0.302 N 
ATOM     22  C   UNL     1      -1.702  -0.911  -2.591  0.00  0.00    +0.163 C 
ATOM     23  C   UNL     1      -2.098  -0.964  -1.137  0.00  0.00    +0.003 A 
ENDROOT
BRANCH   1  25
ATOM     24  C   UNL     1       0.151   1.185  -0.070  0.00  0.00    +0.009 C 
ATOM     25  C   UNL     1       0.041  -0.340  -0.014  0.00  0.00    +0.033 C 
ENDBRANCH   1  25
BRANCH  20  26
ATOM     26  C   UNL     1      -7.706  -1.218  -4.641  0.00  0.00    +0.048 C 
ATOM     27  C   UNL     1      -9.097  -1.606  -5.149  0.00  0.00    +0.007 C 
ENDBRANCH  20  26
BRANCH  20  28
ATOM     28  O   UNL     1      -7.210  -3.527  -4.120  0.00  0.00    -0.373 OA
ATOM     29  H   UNL     1      -8.087  -3.834  -4.389  0.00  0.00    +0.211 HD
ENDBRANCH  20  28
BRANCH   4  30
ATOM     30  O   UNL     1      -1.537  -0.586   4.817  0.00  0.00    -0.411 OA
BRANCH  30  31
ATOM     31  C   UNL     1      -1.307  -1.662   5.593  0.00  0.00    +0.408 C 
ATOM     32  N   UNL     1      -0.805  -1.503   6.834  0.00  0.00    -0.267 N 
ATOM     33  C   UNL     1      -0.510  -0.162   7.356  0.00  0.00    +0.116 C 
ATOM     34  C   UNL     1      -1.224   0.012   8.700  0.00  0.00    +0.073 C 
ATOM     35  C   UNL     1      -0.824  -1.130   9.637  0.00  0.00    +0.067 C 
ATOM     36  C   UNL     1      -1.256  -2.466   9.030  0.00  0.00    +0.073 C 
ATOM     37  C   UNL     1      -0.548  -2.668   7.692  0.00  0.00    +0.116 C 
ATOM     38  O   UNL     1      -1.552  -2.776   5.175  0.00  0.00    -0.226 OA
BRANCH  35  39
ATOM     39  N   UNL     1      -1.481  -0.948  10.939  0.00  0.00    +0.237 N 
ATOM     40  C   UNL     1      -1.067   0.335  11.519  0.00  0.00    +0.131 C 
ATOM     41  C   UNL     1      -1.810   0.567  12.836  0.00  0.00    +0.051 C 
ATOM     42  C   UNL     1      -1.478  -0.568  13.810  0.00  0.00    +0.010 C 
ATOM     43  C   UNL     1      -1.845  -1.906  13.164  0.00  0.00    +0.051 C 
ATOM     44  C   UNL     1      -1.099  -2.046  11.835  0.00  0.00    +0.131 C 
ATOM     45  H   UNL     1      -2.482  -0.951  10.812  0.00  0.00    +0.204 HD
ENDBRANCH  35  39
ENDBRANCH  30  31
ENDBRANCH   4  30
TORSDOF 6
