REMARK  Name = ZINC15_fda_0013.pdb
REMARK  2 active torsions:
REMARK  status: ('A' for Active; 'I' for Inactive)
REMARK    1  A    between atoms: _1  and  _2
REMARK    2  A    between atoms: _3  and  _4
REMARK                            x       y       z     vdW  Elec       q    Type
REMARK                         _______ _______ _______ _____ _____    ______ ____
ROOT
ATOM      1  C   UNL     1       0.624   1.354  -0.559  0.00  0.00    +0.158 C 
ATOM      2  N   UNL     1       0.231  -0.004  -0.174  0.00  0.00    -0.197 N 
ATOM      3  C   UNL     1      -0.312  -0.901  -1.114  0.00  0.00    +0.160 C 
ATOM      4  C   UNL     1      -0.142  -2.238  -1.021  0.00  0.00    +0.215 C 
ATOM      5  C   UNL     1       0.618  -2.903   0.045  0.00  0.00    +0.050 A 
ATOM      6  C   UNL     1       1.028  -4.232  -0.104  0.00  0.00    +0.014 A 
ATOM      7  C   UNL     1       1.743  -4.846   0.903  0.00  0.00    +0.001 A 
ATOM      8  C   UNL     1       2.057  -4.159   2.062  0.00  0.00    +0.002 A 
ATOM      9  C   UNL     1       1.655  -2.841   2.220  0.00  0.00    +0.029 A 
ATOM     10  C   UNL     1       0.943  -2.221   1.224  0.00  0.00    +0.120 A 
ATOM     11  O   UNL     1      -0.709  -3.016  -1.974  0.00  0.00    -0.285 OA
ATOM     12  S   UNL     1       0.416  -0.547   1.391  0.00  0.00    +0.075 S 
ATOM     13  O   UNL     1      -0.882  -0.580   1.967  0.00  0.00    -0.150 OA
ATOM     14  O   UNL     1       1.506   0.173   1.951  0.00  0.00    -0.150 OA
ENDROOT
BRANCH   3  15
ATOM     15  C   UNL     1      -1.064  -0.382  -2.199  0.00  0.00    +0.269 C 
ATOM     16  N   UNL     1      -1.808   0.730  -2.032  0.00  0.00    -0.265 N 
ATOM     17  H   UNL     1      -1.792   1.201  -1.184  0.00  0.00    +0.157 HD
ATOM     18  C   UNL     1      -2.599   1.202  -3.077  0.00  0.00    +0.125 A 
ATOM     19  C   UNL     1      -2.315   0.818  -4.383  0.00  0.00    +0.044 A 
ATOM     20  C   UNL     1      -3.109   1.294  -5.411  0.00  0.00    +0.005 A 
ATOM     21  C   UNL     1      -4.163   2.141  -5.097  0.00  0.00    +0.020 A 
ATOM     22  C   UNL     1      -4.388   2.480  -3.777  0.00  0.00    +0.113 A 
ATOM     23  N   UNL     1      -3.617   2.007  -2.817  0.00  0.00    -0.240 NA
ATOM     24  O   UNL     1      -1.038  -0.941  -3.280  0.00  0.00    -0.268 OA
ENDBRANCH   3  15
TORSDOF 1
