REMARK  Name = ZINC15_fda_0015.pdb
REMARK  0 active torsions:
REMARK  status: ('A' for Active; 'I' for Inactive)
REMARK                            x       y       z     vdW  Elec       q    Type
REMARK                         _______ _______ _______ _____ _____    ______ ____
ROOT
ATOM      1  S   UNL     1       0.002  -0.004   0.002  0.00  0.00    -0.030 S 
ATOM      2  C   UNL     1      -0.021   1.708   0.011  0.00  0.00    +0.115 A 
ATOM      3  N   UNL     1      -1.190   2.386   0.032  0.00  0.00    -0.338 N 
ATOM      4  H   UNL     1      -2.030   1.900   0.041  0.00  0.00    +0.167 HD
ATOM      5  C   UNL     1      -1.197   3.743   0.040  0.00  0.00    +0.199 A 
ATOM      6  N   UNL     1      -0.097   4.442   0.028  0.00  0.00    -0.218 NA
ATOM      7  C   UNL     1       1.105   3.848   0.007  0.00  0.00    +0.162 A 
ATOM      8  N   UNL     1       2.395   4.301  -0.009  0.00  0.00    -0.329 N 
ATOM      9  H   UNL     1       2.677   5.230  -0.012  0.00  0.00    +0.168 HD
ATOM     10  C   UNL     1       3.213   3.211  -0.028  0.00  0.00    +0.198 A 
ATOM     11  N   UNL     1       2.497   2.123  -0.018  0.00  0.00    -0.232 NA
ATOM     12  C   UNL     1       1.184   2.451   0.004  0.00  0.00    +0.138 A 
ENDROOT
TORSDOF 0
