REMARK  Name = ZINC15_fda_0004.pdb
REMARK  4 active torsions:
REMARK  status: ('A' for Active; 'I' for Inactive)
REMARK    1  A    between atoms: _7  and  _8
REMARK    2  A    between atoms: _8  and  _9
REMARK    3  A    between atoms: _8  and  _15
REMARK    4  A    between atoms: _8  and  _21
REMARK                            x       y       z     vdW  Elec       q    Type
REMARK                         _______ _______ _______ _____ _____    ______ ____
ROOT
ATOM      1  C   UNL     1       2.482   1.705  -0.018  0.00  0.00    +0.123 C 
ENDROOT
BRANCH   1   8
ATOM      2 CL   UNL     1      -0.215   0.466   0.493  0.00  0.00    -0.083 Cl
ATOM      3  C   UNL     1       0.007   2.068  -0.138  0.00  0.00    +0.047 A 
ATOM      4  C   UNL     1      -1.092   2.854  -0.433  0.00  0.00    +0.020 A 
ATOM      5  C   UNL     1      -0.914   4.130  -0.935  0.00  0.00    +0.001 A 
ATOM      6  C   UNL     1       0.362   4.620  -1.142  0.00  0.00    +0.000 A 
ATOM      7  C   UNL     1       1.461   3.834  -0.847  0.00  0.00    +0.008 A 
ATOM      8  C   UNL     1       1.285   2.561  -0.340  0.00  0.00    +0.006 A 
ENDBRANCH   1   8
BRANCH   1   9
ATOM      9  C   UNL     1       2.521   0.523  -0.953  0.00  0.00    -0.013 A 
ATOM     10  C   UNL     1       1.520   0.350  -1.890  0.00  0.00    +0.006 A 
ATOM     11  C   UNL     1       1.555  -0.734  -2.747  0.00  0.00    +0.000 A 
ATOM     12  C   UNL     1       2.592  -1.645  -2.667  0.00  0.00    +0.000 A 
ATOM     13  C   UNL     1       3.594  -1.471  -1.730  0.00  0.00    +0.000 A 
ATOM     14  C   UNL     1       3.561  -0.385  -0.876  0.00  0.00    +0.006 A 
ENDBRANCH   1   9
BRANCH   1  15
ATOM     15  C   UNL     1       2.384   1.218   1.404  0.00  0.00    -0.013 A 
ATOM     16  C   UNL     1       2.287   2.127   2.441  0.00  0.00    +0.006 A 
ATOM     17  C   UNL     1       2.196   1.679   3.746  0.00  0.00    +0.000 A 
ATOM     18  C   UNL     1       2.203   0.324   4.014  0.00  0.00    +0.000 A 
ATOM     19  C   UNL     1       2.300  -0.586   2.977  0.00  0.00    +0.000 A 
ATOM     20  C   UNL     1       2.386  -0.139   1.672  0.00  0.00    +0.006 A 
ENDBRANCH   1  15
BRANCH   1  21
ATOM     21  N   UNL     1       3.705   2.496  -0.180  0.00  0.00    -0.319 N 
ATOM     22  C   UNL     1       4.720   2.251  -1.066  0.00  0.00    +0.108 A 
ATOM     23  C   UNL     1       5.640   3.216  -0.881  0.00  0.00    +0.130 A 
ATOM     24  N   UNL     1       5.200   4.028   0.092  0.00  0.00    -0.244 NA
ATOM     25  C   UNL     1       4.039   3.606   0.512  0.00  0.00    +0.200 A 
ENDBRANCH   1  21
TORSDOF 4
